
Version,
  8.7;                                    !- Version Identifier

LifeCycleCost:Parameters,
  {ce16e79b-f932-42e9-a859-64ef92143028}, !- Name
  EndOfYear,                              !- Discounting Convention
  ConstantDollar,                         !- Inflation Approach
  0.03,                                   !- Real Discount Rate
  ,                                       !- Nominal Discount Rate
  ,                                       !- Inflation
  ,                                       !- Base Date Month
  2011,                                   !- Base Date Year
  ,                                       !- Service Date Month
  2011,                                   !- Service Date Year
  25,                                     !- Length of Study Period in Years
  ,                                       !- Tax rate
  None;                                   !- Depreciation Method

LifeCycleCost:UsePriceEscalation,
  U.S. Avg  Commercial-Electricity,       !- Name
  Electricity,                            !- Resource
  2011,                                   !- Escalation Start Year
  January,                                !- Escalation Start Month
  0.9838,                                 !- Year Escalation 1
  0.9730,                                 !- Year Escalation 2
  0.9632,                                 !- Year Escalation 3
  0.9611,                                 !- Year Escalation 4
  0.9571,                                 !- Year Escalation 5
  0.9553,                                 !- Year Escalation 6
  0.9539,                                 !- Year Escalation 7
  0.9521,                                 !- Year Escalation 8
  0.9546,                                 !- Year Escalation 9
  0.9550,                                 !- Year Escalation 10
  0.9553,                                 !- Year Escalation 11
  0.9564,                                 !- Year Escalation 12
  0.9575,                                 !- Year Escalation 13
  0.9596,                                 !- Year Escalation 14
  0.9618,                                 !- Year Escalation 15
  0.9614,                                 !- Year Escalation 16
  0.9618,                                 !- Year Escalation 17
  0.9618,                                 !- Year Escalation 18
  0.9593,                                 !- Year Escalation 19
  0.9589,                                 !- Year Escalation 20
  0.9607,                                 !- Year Escalation 21
  0.9625,                                 !- Year Escalation 22
  0.9650,                                 !- Year Escalation 23
  0.9708,                                 !- Year Escalation 24
  0.9751,                                 !- Year Escalation 25
  0.9762,                                 !- Year Escalation 26
  0.9766,                                 !- Year Escalation 27
  0.9766,                                 !- Year Escalation 28
  0.9769,                                 !- Year Escalation 29
  0.9773;                                 !- Year Escalation 30

LifeCycleCost:UsePriceEscalation,
  U.S. Avg  Commercial-Distillate Oil,    !- Name
  FuelOil#1,                              !- Resource
  2011,                                   !- Escalation Start Year
  January,                                !- Escalation Start Month
  0.9714,                                 !- Year Escalation 1
  0.9730,                                 !- Year Escalation 2
  0.9942,                                 !- Year Escalation 3
  1.0164,                                 !- Year Escalation 4
  1.0541,                                 !- Year Escalation 5
  1.0928,                                 !- Year Escalation 6
  1.1267,                                 !- Year Escalation 7
  1.1580,                                 !- Year Escalation 8
  1.1792,                                 !- Year Escalation 9
  1.1967,                                 !- Year Escalation 10
  1.2200,                                 !- Year Escalation 11
  1.2333,                                 !- Year Escalation 12
  1.2566,                                 !- Year Escalation 13
  1.2709,                                 !- Year Escalation 14
  1.2826,                                 !- Year Escalation 15
  1.2985,                                 !- Year Escalation 16
  1.3102,                                 !- Year Escalation 17
  1.3250,                                 !- Year Escalation 18
  1.3261,                                 !- Year Escalation 19
  1.3282,                                 !- Year Escalation 20
  1.3324,                                 !- Year Escalation 21
  1.3356,                                 !- Year Escalation 22
  1.3431,                                 !- Year Escalation 23
  1.3510,                                 !- Year Escalation 24
  1.3568,                                 !- Year Escalation 25
  1.3606,                                 !- Year Escalation 26
  1.3637,                                 !- Year Escalation 27
  1.3674,                                 !- Year Escalation 28
  1.3706,                                 !- Year Escalation 29
  1.3743;                                 !- Year Escalation 30

LifeCycleCost:UsePriceEscalation,
  U.S. Avg  Commercial-Residual Oil,      !- Name
  FuelOil#2,                              !- Resource
  2011,                                   !- Escalation Start Year
  January,                                !- Escalation Start Month
  0.8469,                                 !- Year Escalation 1
  0.8257,                                 !- Year Escalation 2
  0.8681,                                 !- Year Escalation 3
  0.8988,                                 !- Year Escalation 4
  0.9289,                                 !- Year Escalation 5
  0.9604,                                 !- Year Escalation 6
  0.9897,                                 !- Year Escalation 7
  1.0075,                                 !- Year Escalation 8
  1.0314,                                 !- Year Escalation 9
  1.0554,                                 !- Year Escalation 10
  1.0861,                                 !- Year Escalation 11
  1.1278,                                 !- Year Escalation 12
  1.1497,                                 !- Year Escalation 13
  1.1620,                                 !- Year Escalation 14
  1.1743,                                 !- Year Escalation 15
  1.1852,                                 !- Year Escalation 16
  1.1948,                                 !- Year Escalation 17
  1.2037,                                 !- Year Escalation 18
  1.2071,                                 !- Year Escalation 19
  1.2119,                                 !- Year Escalation 20
  1.2139,                                 !- Year Escalation 21
  1.2194,                                 !- Year Escalation 22
  1.2276,                                 !- Year Escalation 23
  1.2365,                                 !- Year Escalation 24
  1.2420,                                 !- Year Escalation 25
  1.2461,                                 !- Year Escalation 26
  1.2509,                                 !- Year Escalation 27
  1.2550,                                 !- Year Escalation 28
  1.2591,                                 !- Year Escalation 29
  1.2638;                                 !- Year Escalation 30

LifeCycleCost:UsePriceEscalation,
  U.S. Avg  Commercial-Natural gas,       !- Name
  NaturalGas,                             !- Resource
  2011,                                   !- Escalation Start Year
  January,                                !- Escalation Start Month
  0.9823,                                 !- Year Escalation 1
  0.9557,                                 !- Year Escalation 2
  0.9279,                                 !- Year Escalation 3
  0.9257,                                 !- Year Escalation 4
  0.9346,                                 !- Year Escalation 5
  0.9412,                                 !- Year Escalation 6
  0.9512,                                 !- Year Escalation 7
  0.9645,                                 !- Year Escalation 8
  0.9856,                                 !- Year Escalation 9
  1.0067,                                 !- Year Escalation 10
  1.0222,                                 !- Year Escalation 11
  1.0410,                                 !- Year Escalation 12
  1.0610,                                 !- Year Escalation 13
  1.0787,                                 !- Year Escalation 14
  1.0942,                                 !- Year Escalation 15
  1.1098,                                 !- Year Escalation 16
  1.1220,                                 !- Year Escalation 17
  1.1308,                                 !- Year Escalation 18
  1.1386,                                 !- Year Escalation 19
  1.1486,                                 !- Year Escalation 20
  1.1619,                                 !- Year Escalation 21
  1.1763,                                 !- Year Escalation 22
  1.1918,                                 !- Year Escalation 23
  1.2118,                                 !- Year Escalation 24
  1.2284,                                 !- Year Escalation 25
  1.2439,                                 !- Year Escalation 26
  1.2605,                                 !- Year Escalation 27
  1.2772,                                 !- Year Escalation 28
  1.2938,                                 !- Year Escalation 29
  1.3115;                                 !- Year Escalation 30

LifeCycleCost:UsePriceEscalation,
  U.S. Avg  Commercial-Coal,              !- Name
  Coal,                                   !- Resource
  2011,                                   !- Escalation Start Year
  January,                                !- Escalation Start Month
  0.9970,                                 !- Year Escalation 1
  1.0089,                                 !- Year Escalation 2
  1.0089,                                 !- Year Escalation 3
  0.9941,                                 !- Year Escalation 4
  0.9941,                                 !- Year Escalation 5
  1.0000,                                 !- Year Escalation 6
  1.0030,                                 !- Year Escalation 7
  1.0059,                                 !- Year Escalation 8
  1.0089,                                 !- Year Escalation 9
  1.0119,                                 !- Year Escalation 10
  1.0148,                                 !- Year Escalation 11
  1.0178,                                 !- Year Escalation 12
  1.0208,                                 !- Year Escalation 13
  1.0267,                                 !- Year Escalation 14
  1.0297,                                 !- Year Escalation 15
  1.0356,                                 !- Year Escalation 16
  1.0415,                                 !- Year Escalation 17
  1.0534,                                 !- Year Escalation 18
  1.0564,                                 !- Year Escalation 19
  1.0593,                                 !- Year Escalation 20
  1.0653,                                 !- Year Escalation 21
  1.0712,                                 !- Year Escalation 22
  1.0742,                                 !- Year Escalation 23
  1.0801,                                 !- Year Escalation 24
  1.0831,                                 !- Year Escalation 25
  1.0831,                                 !- Year Escalation 26
  1.0861,                                 !- Year Escalation 27
  1.0890,                                 !- Year Escalation 28
  1.0920,                                 !- Year Escalation 29
  1.0950;                                 !- Year Escalation 30

Building,
  DOE Ref Pre-1980-MediumOffice-ASHRAE 169-2006-1A created: 2017-12-16 16:45:28 -0700, !- Name
  0,                                      !- North Axis {deg}
  City,                                   !- Terrain
  0.04,                                   !- Loads Convergence Tolerance Value
  0.2,                                    !- Temperature Convergence Tolerance Value {deltaC}
  FullInteriorAndExterior,                !- Solar Distribution
  25,                                     !- Maximum Number of Warmup Days
  6;                                      !- Minimum Number of Warmup Days

Zone,
  Core_bottom ZN,                         !- Name
  0,                                      !- Direction of Relative North {deg}
  0,                                      !- X Origin {m}
  0,                                      !- Y Origin {m}
  0,                                      !- Z Origin {m}
  ,                                       !- Type
  ,                                       !- Multiplier
  ,                                       !- Ceiling Height {m}
  ,                                       !- Volume {m3}
  ,                                       !- Floor Area {m2}
  ,                                       !- Zone Inside Convection Algorithm
  ,                                       !- Zone Outside Convection Algorithm
  Yes;                                    !- Part of Total Floor Area

BuildingSurface:Detailed,
  Core_bottom_ceiling,                    !- Name
  Ceiling,                                !- Surface Type
  Typical Interior Ceiling,               !- Construction Name
  Core_bottom ZN,                         !- Zone Name
  Surface,                                !- Outside Boundary Condition
  FirstFloor_Plenum_Floor_5,              !- Outside Boundary Condition Object
  NoSun,                                  !- Sun Exposure
  NoWind,                                 !- Wind Exposure
  ,                                       !- View Factor to Ground
  ,                                       !- Number of Vertices
  45.3375, 4.5732, 2.7432,                !- X,Y,Z Vertex 1 {m}
  45.3375, 28.7006, 2.7432,               !- X,Y,Z Vertex 2 {m}
  4.5732, 28.7006, 2.7432,                !- X,Y,Z Vertex 3 {m}
  4.5732, 4.5732, 2.7432;                 !- X,Y,Z Vertex 4 {m}

BuildingSurface:Detailed,
  Core_bot_ZN_5_Floor,                    !- Name
  Floor,                                  !- Surface Type
  ext-slab-mass,                          !- Construction Name
  Core_bottom ZN,                         !- Zone Name
  Ground,                                 !- Outside Boundary Condition
  ,                                       !- Outside Boundary Condition Object
  NoSun,                                  !- Sun Exposure
  NoWind,                                 !- Wind Exposure
  ,                                       !- View Factor to Ground
  ,                                       !- Number of Vertices
  45.3375, 28.7006, 0,                    !- X,Y,Z Vertex 1 {m}
  45.3375, 4.5732, 0,                     !- X,Y,Z Vertex 2 {m}
  4.5732, 4.5732, 0,                      !- X,Y,Z Vertex 3 {m}
  4.5732, 28.7006, 0;                     !- X,Y,Z Vertex 4 {m}

BuildingSurface:Detailed,
  Core_bot_ZN_5_Wall_East,                !- Name
  Wall,                                   !- Surface Type
  Typical Interior Wall,                  !- Construction Name
  Core_bottom ZN,                         !- Zone Name
  Surface,                                !- Outside Boundary Condition
  Perimeter_bot_ZN_2_Wall_West,           !- Outside Boundary Condition Object
  NoSun,                                  !- Sun Exposure
  NoWind,                                 !- Wind Exposure
  ,                                       !- View Factor to Ground
  ,                                       !- Number of Vertices
  45.3375, 4.5732, 2.7432,                !- X,Y,Z Vertex 1 {m}
  45.3375, 4.5732, 0,                     !- X,Y,Z Vertex 2 {m}
  45.3375, 28.7006, 0,                    !- X,Y,Z Vertex 3 {m}
  45.3375, 28.7006, 2.7432;               !- X,Y,Z Vertex 4 {m}

BuildingSurface:Detailed,
  Core_bot_ZN_5_Wall_North,               !- Name
  Wall,                                   !- Surface Type
  Typical Interior Wall,                  !- Construction Name
  Core_bottom ZN,                         !- Zone Name
  Surface,                                !- Outside Boundary Condition
  Perimeter_bot_ZN_3_Wall_South,          !- Outside Boundary Condition Object
  NoSun,                                  !- Sun Exposure
  NoWind,                                 !- Wind Exposure
  ,                                       !- View Factor to Ground
  ,                                       !- Number of Vertices
  45.3375, 28.7006, 2.7432,               !- X,Y,Z Vertex 1 {m}
  45.3375, 28.7006, 0,                    !- X,Y,Z Vertex 2 {m}
  4.5732, 28.7006, 0,                     !- X,Y,Z Vertex 3 {m}
  4.5732, 28.7006, 2.7432;                !- X,Y,Z Vertex 4 {m}

BuildingSurface:Detailed,
  Core_bot_ZN_5_Wall_South,               !- Name
  Wall,                                   !- Surface Type
  Typical Interior Wall,                  !- Construction Name
  Core_bottom ZN,                         !- Zone Name
  Surface,                                !- Outside Boundary Condition
  Perimeter_bot_ZN_1_Wall_North,          !- Outside Boundary Condition Object
  NoSun,                                  !- Sun Exposure
  NoWind,                                 !- Wind Exposure
  ,                                       !- View Factor to Ground
  ,                                       !- Number of Vertices
  4.5732, 4.5732, 2.7432,                 !- X,Y,Z Vertex 1 {m}
  4.5732, 4.5732, 0,                      !- X,Y,Z Vertex 2 {m}
  45.3375, 4.5732, 0,                     !- X,Y,Z Vertex 3 {m}
  45.3375, 4.5732, 2.7432;                !- X,Y,Z Vertex 4 {m}

BuildingSurface:Detailed,
  Core_bot_ZN_5_Wall_West,                !- Name
  Wall,                                   !- Surface Type
  Typical Interior Wall,                  !- Construction Name
  Core_bottom ZN,                         !- Zone Name
  Surface,                                !- Outside Boundary Condition
  Perimeter_bot_ZN_4_Wall_East,           !- Outside Boundary Condition Object
  NoSun,                                  !- Sun Exposure
  NoWind,                                 !- Wind Exposure
  ,                                       !- View Factor to Ground
  ,                                       !- Number of Vertices
  4.5732, 28.7006, 2.7432,                !- X,Y,Z Vertex 1 {m}
  4.5732, 28.7006, 0,                     !- X,Y,Z Vertex 2 {m}
  4.5732, 4.5732, 0,                      !- X,Y,Z Vertex 3 {m}
  4.5732, 4.5732, 2.7432;                 !- X,Y,Z Vertex 4 {m}

InternalMass,
  Core_bottom Mass,                       !- Name
  InteriorFurnishings,                    !- Construction Name
  Core_bottom ZN,                         !- Zone Name
  1967.07314364;                          !- Surface Area {m2}

ElectricEquipment,
  2 Elevator Lift Motors -107.4118113 percent reduction, !- Name
  Core_bottom ZN,                         !- Zone or ZoneList Name
  Medium Office BLDG ELEVATORS,           !- Schedule Name
  EquipmentLevel,                         !- Design Level Calculation Method
  60605.73126186,                         !- Design Level {W}
  ,                                       !- Watts per Zone Floor Area {W/m2}
  ,                                       !- Watts per Person {W/person}
  ,                                       !- Fraction Latent
  ,                                       !- Fraction Radiant
  ;                                       !- Fraction Lost

ZoneControl:Thermostat,
  Core_bottom ZN Thermostat,              !- Name
  Core_bottom ZN,                         !- Zone or ZoneList Name
  Core_bottom ZN Thermostat Schedule,     !- Control Type Schedule Name
  ThermostatSetpoint:DualSetpoint,        !- Control Object Type 1
  Office WholeBuilding - Md Office Thermostat 1; !- Control Name 1

Schedule:Compact,
  Core_bottom ZN Thermostat Schedule,     !- Name
  Core_bottom ZN Thermostat Schedule Type Limits, !- Schedule Type Limits Name
  Through: 12/31,                         !- Field 1
  For: AllDays,                           !- Field 2
  Until: 24:00,                           !- Field 3
  4;                                      !- Field 4

ScheduleTypeLimits,
  Core_bottom ZN Thermostat Schedule Type Limits, !- Name
  0,                                      !- Lower Limit Value {BasedOnField A3}
  4,                                      !- Upper Limit Value {BasedOnField A3}
  DISCRETE;                               !- Numeric Type

ThermostatSetpoint:DualSetpoint,
  Office WholeBuilding - Md Office Thermostat 1, !- Name
  Medium Office HtgSetp,                  !- Heating Setpoint Temperature Schedule Name
  Medium Office ClgSetp;                  !- Cooling Setpoint Temperature Schedule Name

ScheduleTypeLimits,
  Temperature,                            !- Name
  ,                                       !- Lower Limit Value {BasedOnField A3}
  ,                                       !- Upper Limit Value {BasedOnField A3}
  Continuous,                             !- Numeric Type
  temperature;                            !- Unit Type

Schedule:Day:Interval,
  Medium Office HtgSetp SmrDsn|Sun Day,   !- Name
  Temperature,                            !- Schedule Type Limits Name
  No,                                     !- Interpolate to Timestep
  00:15,                                  !- Time 1 {hh:mm}
  15.6,                                   !- Value Until Time 1
  00:30,                                  !- Time 2 {hh:mm}
  15.6,                                   !- Value Until Time 2
  00:45,                                  !- Time 3 {hh:mm}
  15.6,                                   !- Value Until Time 3
  01:00,                                  !- Time 4 {hh:mm}
  15.6,                                   !- Value Until Time 4
  01:15,                                  !- Time 5 {hh:mm}
  15.6,                                   !- Value Until Time 5
  01:30,                                  !- Time 6 {hh:mm}
  15.6,                                   !- Value Until Time 6
  01:45,                                  !- Time 7 {hh:mm}
  15.6,                                   !- Value Until Time 7
  02:00,                                  !- Time 8 {hh:mm}
  15.6,                                   !- Value Until Time 8
  02:15,                                  !- Time 9 {hh:mm}
  15.6,                                   !- Value Until Time 9
  02:30,                                  !- Time 10 {hh:mm}
  15.6,                                   !- Value Until Time 10
  02:45,                                  !- Time 11 {hh:mm}
  15.6,                                   !- Value Until Time 11
  03:00,                                  !- Time 12 {hh:mm}
  15.6,                                   !- Value Until Time 12
  03:15,                                  !- Time 13 {hh:mm}
  15.6,                                   !- Value Until Time 13
  03:30,                                  !- Time 14 {hh:mm}
  15.6,                                   !- Value Until Time 14
  03:45,                                  !- Time 15 {hh:mm}
  15.6,                                   !- Value Until Time 15
  04:00,                                  !- Time 16 {hh:mm}
  15.6,                                   !- Value Until Time 16
  04:15,                                  !- Time 17 {hh:mm}
  15.6,                                   !- Value Until Time 17
  04:30,                                  !- Time 18 {hh:mm}
  15.6,                                   !- Value Until Time 18
  04:45,                                  !- Time 19 {hh:mm}
  15.6,                                   !- Value Until Time 19
  05:00,                                  !- Time 20 {hh:mm}
  15.6,                                   !- Value Until Time 20
  05:15,                                  !- Time 21 {hh:mm}
  15.6,                                   !- Value Until Time 21
  05:30,                                  !- Time 22 {hh:mm}
  15.6,                                   !- Value Until Time 22
  05:45,                                  !- Time 23 {hh:mm}
  15.6,                                   !- Value Until Time 23
  06:00,                                  !- Time 24 {hh:mm}
  15.6,                                   !- Value Until Time 24
  06:15,                                  !- Time 25 {hh:mm}
  15.6,                                   !- Value Until Time 25
  06:30,                                  !- Time 26 {hh:mm}
  15.6,                                   !- Value Until Time 26
  06:45,                                  !- Time 27 {hh:mm}
  15.6,                                   !- Value Until Time 27
  07:00,                                  !- Time 28 {hh:mm}
  15.6,                                   !- Value Until Time 28
  07:15,                                  !- Time 29 {hh:mm}
  15.6,                                   !- Value Until Time 29
  07:30,                                  !- Time 30 {hh:mm}
  15.6,                                   !- Value Until Time 30
  07:45,                                  !- Time 31 {hh:mm}
  15.6,                                   !- Value Until Time 31
  08:00,                                  !- Time 32 {hh:mm}
  15.6,                                   !- Value Until Time 32
  08:15,                                  !- Time 33 {hh:mm}
  15.6,                                   !- Value Until Time 33
  08:30,                                  !- Time 34 {hh:mm}
  15.6,                                   !- Value Until Time 34
  08:45,                                  !- Time 35 {hh:mm}
  15.6,                                   !- Value Until Time 35
  09:00,                                  !- Time 36 {hh:mm}
  15.6,                                   !- Value Until Time 36
  09:15,                                  !- Time 37 {hh:mm}
  15.6,                                   !- Value Until Time 37
  09:30,                                  !- Time 38 {hh:mm}
  15.6,                                   !- Value Until Time 38
  09:45,                                  !- Time 39 {hh:mm}
  15.6,                                   !- Value Until Time 39
  10:00,                                  !- Time 40 {hh:mm}
  15.6,                                   !- Value Until Time 40
  10:15,                                  !- Time 41 {hh:mm}
  15.6,                                   !- Value Until Time 41
  10:30,                                  !- Time 42 {hh:mm}
  15.6,                                   !- Value Until Time 42
  10:45,                                  !- Time 43 {hh:mm}
  15.6,                                   !- Value Until Time 43
  11:00,                                  !- Time 44 {hh:mm}
  15.6,                                   !- Value Until Time 44
  11:15,                                  !- Time 45 {hh:mm}
  15.6,                                   !- Value Until Time 45
  11:30,                                  !- Time 46 {hh:mm}
  15.6,                                   !- Value Until Time 46
  11:45,                                  !- Time 47 {hh:mm}
  15.6,                                   !- Value Until Time 47
  12:00,                                  !- Time 48 {hh:mm}
  15.6,                                   !- Value Until Time 48
  12:15,                                  !- Time 49 {hh:mm}
  15.6,                                   !- Value Until Time 49
  12:30,                                  !- Time 50 {hh:mm}
  15.6,                                   !- Value Until Time 50
  12:45,                                  !- Time 51 {hh:mm}
  15.6,                                   !- Value Until Time 51
  13:00,                                  !- Time 52 {hh:mm}
  15.6,                                   !- Value Until Time 52
  13:15,                                  !- Time 53 {hh:mm}
  15.6,                                   !- Value Until Time 53
  13:30,                                  !- Time 54 {hh:mm}
  15.6,                                   !- Value Until Time 54
  13:45,                                  !- Time 55 {hh:mm}
  15.6,                                   !- Value Until Time 55
  14:00,                                  !- Time 56 {hh:mm}
  15.6,                                   !- Value Until Time 56
  14:15,                                  !- Time 57 {hh:mm}
  15.6,                                   !- Value Until Time 57
  14:30,                                  !- Time 58 {hh:mm}
  15.6,                                   !- Value Until Time 58
  14:45,                                  !- Time 59 {hh:mm}
  15.6,                                   !- Value Until Time 59
  15:00,                                  !- Time 60 {hh:mm}
  15.6,                                   !- Value Until Time 60
  15:15,                                  !- Time 61 {hh:mm}
  15.6,                                   !- Value Until Time 61
  15:30,                                  !- Time 62 {hh:mm}
  15.6,                                   !- Value Until Time 62
  15:45,                                  !- Time 63 {hh:mm}
  15.6,                                   !- Value Until Time 63
  16:00,                                  !- Time 64 {hh:mm}
  15.6,                                   !- Value Until Time 64
  16:15,                                  !- Time 65 {hh:mm}
  15.6,                                   !- Value Until Time 65
  16:30,                                  !- Time 66 {hh:mm}
  15.6,                                   !- Value Until Time 66
  16:45,                                  !- Time 67 {hh:mm}
  15.6,                                   !- Value Until Time 67
  17:00,                                  !- Time 68 {hh:mm}